*******************************
* Begin .SUBCKT model         *
* spice-sdb ver 4.28.2007     *
*******************************
.SUBCKT OR 1 2 3 
*==============  Begin SPICE netlist of main design ============
X1 1 2 4 NOR
X2 4 3 INV1
.ends OR
*******************************
