*******************************
* Begin .SUBCKT model         *
* spice-sdb ver 4.28.2007     *
*******************************
.SUBCKT ORP 1 2 3 
*==============  Begin SPICE netlist of main design ============
X2 4 3 INV1P
X1 1 2 4 NORP
.ends ORP
*******************************
